[TITLE]
Neptun network solve issue with double node 281
Junctions, Pipes and Valves have been reordered
2013.11.06

[JUNCTIONS]
;ID              	Elev        	Demand      	Pattern         
 3	0	0	                	;	Nod
 7	0	0	                	;	Nod
 8	0	0	                	;	Nod
 9	0	0	                	;	Hidrant
 10	0	0.04938272	DP1             	;	CaminApometru
 11	0	0	                	;	Nod
 12	0	0	                	;	Nod
 13	0	0.04783952	DP1             	;	CaminApometru
 14	0	0	                	;	Nod
 15	0	0	                	;	Nod
 16	0	0.04629632	DP1             	;	CaminApometru
 17	0	0	                	;	Nod
 18	0	0.01543208	DP1             	;	CaminApometru
 19	0	0.00246912	DP1             	;	CaminApometru
 20	0	0	                	;	Nod
 21	0	0	                	;	Nod
 22	0	0.00895064	DP1             	;	CaminApometru
 24	0	0	                	;	Nod
 25	0	0.0046296	DP1             	;	CaminApometru
 27	0	0	                	;	Nod
 28	0	0	                	;	Nod
 30	0	0	                	;	CaminApometru
 31	0	0	                	;	Nod
 32	0	0.02160496	DP1             	;	CaminApometru
 33	0	0	                	;	Nod
 34	0	0	                	;	Nod
 35	0	0	                	;	Nod
 36	0	0	                	;	Hidrant
 37	0	0	                	;	Vana
 38	0	0	                	;	Nod
 39	0	0	                	;	Vana
 40	0	0	                	;	Nod
 41	0	0.0030864	DP1             	;	CaminApometru
 42	0	0.00895064	DP1             	;	CaminApometru
 43	0	0.01851848	DP1             	;	CaminApometru
 44	0	0	                	;	Nod
 45	0	0	                	;	Nod
 46	0	0.00493824	DP1             	;	CaminApometru
 47	0	0	                	;	Nod 
 48	0	0	                	;	Nod
 49	0	0	                	;	Nod
 50	0	0	                	;	Nod
 51	0	0.0648148	DP1             	;	CaminApometru
 52	0	0.058642	DP1             	;	CaminApometru
 53	0	0.02469136	DP1             	;	CaminApometru
 54	0	0.00679008	DP1             	;	CaminApometru
 55	0	0.02314816	DP1             	;	CaminApometru
 56	0	0.02592592	DP1             	;	CaminApometru
 57	0	0	                	;	Nod
 58	0	0	                	;	Nod
 59	0	0	                	;	Nod
 60	0	0.02006176	DP1             	;	CaminApometru
 61	0	0.00401232	DP1             	;	CaminApometru
 62	0	0	                	;	Nod
 63	0	0	                	;	Nod
 64	0	0	                	;	Nod
 65	0	0	                	;	Nod
 66	0	0	                	;	Nod
 67	0	0	                	;	Nod
 68	0	0	                	;	Nod
 69	0	0	                	;	Nod
 70	0	0	                	;	Nod
 71	0	0	                	;	Hidrant
 72	0	0.02314816	DP1             	;	CaminApometru
 73	0	0	                	;	Nod
 74	0	0	                	;	Nod
 75	0	0	                	;	Nod
 76	0	0.0046296	DP1             	;	CaminApometru
 77	0	0.0015432	DP1             	;	CaminApometru
 78	0	0	                	;	Hidrant
 79	0	0	                	;	Nod
 80	0	0.0925928	DP1             	;	CaminApometru
 81	0	0	                	;	Vana
 82	0	0	                	;	Nod
 83	0	0	                	;	Nod
 84	0	0	                	;	Nod
 85	0	0.0296296	DP1             	;	CaminApometru
 86	0	0.02314816	DP1             	;	CaminApometru
 87	0	0.00617288	DP1             	;	CaminApometru
 88	0	0	                	;	Vana
 89	0	0	                	;	Nod
 90	0	0	                	;	Nod
 91	0	0.117284	DP1             	;	CaminApometru
 92	0	0	                	;	Nod
 93	0	0	                	;	Nod
 94	0	0	                	;	Vana
 95	0	0	                	;	Nod
 98	0	0	                	;	Nod
 99	0	0.01111112	DP1             	;	CaminApometru
 100	0	0.01203704	DP1             	;	CaminApometru
 101	0	0	                	;	Nod
 102	0	0	                	;	Nod
 104	0	0.01820984	DP1             	;	CaminApometru
 105	0	0	                	;	Nod
 108	0	0	                	;	Nod
 109	0	0	                	;	Nod
 110	0	0.00925928	DP1             	;	CaminApometru
 111	0	0	                	;	Hidrant
 112	0	0.00771608	DP1             	;	CaminApometru
 113	0	0.0030864	DP1             	;	CaminApometru
 114	0	0	                	;	Nod
 115	0	0	                	;	Nod
 116	0	0	                	;	Nod
 117	0	0.00771608	DP1             	;	CaminApometru
 118	0	0	                	;	Nod
 119	0	0.07314816	DP1             	;	CaminApometru
 120	0	0	                	;	Nod
 121	0	0	                	;	Nod
 122	0	0.00277776	DP1             	;	CaminApometru
 123	0	0.02469136	DP1             	;	CaminApometru
 124	0	0	                	;	Nod
 125	0	0.00432096	DP1             	;	CaminApometru
 126	0	0	                	;	Nod
 127	0	0	                	;	Nod
 128	0	0	                	;	Nod
 129	0	0	                	;	Hidrant
 130	0	0.0046296	DP1             	;	CaminApometru
 131	0	0	                	;	Vana
 132	0	0	                	;	Nod
 133	0	0.0015432	DP1             	;	CaminApometru
 134	0	0	                	;	Nod
 135	0	0	                	;	Nod
 136	0	0	                	;	Nod
 137	0	0	                	;	Nod
 138	0	0.00401232	DP1             	;	CaminApometru
 139	0	0	                	;	Nod
 140	0	0	                	;	Nod
 141	0	0.00586424	DP1             	;	CaminApometru
 142	0	0	                	;	Nod
 143	0	0.00679008	DP1             	;	CaminApometru
 144	0	0	                	;	Nod
 145	0	0.00493824	DP1             	;	CaminApometru
 146	0	0	                	;	Nod
 147	0	0	                	;	Nod
 148	0	0.00802472	DP1             	;	CaminApometru
 149	0	0.00277776	DP1             	;	CaminApometru
 150	0	0.00524688	DP1             	;	CaminApometru
 151	0	0	                	;	Nod
 152	0	0	                	;	Nod
 153	0	0.00246912	DP1             	;	CaminApometru
 154	0	0.00740744	DP1             	;	CaminApometru
 155	0	0	                	;	Nod
 156	0	0.0015432	DP1             	;	CaminApometru
 157	0	0	                	;	Nod
 158	0	0	                	;	Hidrant
 159	0	0	                	;	Nod
 160	0	0.02006176	DP1             	;	CaminApometru
 161	0	0	                	;	Nod
 162	0	0	                	;	Nod
 163	0	0.0030864	DP1             	;	CaminApometru
 164	0	0	                	;	CaminApometru
 168	0	0.00030864	DP1             	;	CaminApometru
 170	0	0	                	;	Nod
 171	0	0	                	;	Vana
 172	0	0	                	;	Nod
 173	0	0	                	;	Nod
 174	0	0	                	;	Vana
 175	0	0	                	;	Nod
 176	0	0	                	;	Nod
 177	0	0	                	;	Vana
 178	0	0	                	;	Vana
 179	0	0	                	;	Nod
 180	0	0	                	;	Nod
 181	0	0.03858024	DP1             	;	CaminApometru
 182	0	0	                	;	Nod
 183	0	0	                	;	Vana
 184	0	0	                	;	Nod
 185	0	0	                	;	Nod
 186	0	0	                	;	Nod
 187	0	0	                	;	Vana
 188	0	0	                	;	Nod
 189	0	0	                	;	Hidrant
 190	0	0	                	;	Nod
 191	0	0.01851848	DP1             	;	CaminApometru
 200	0	0	                	;	Hidrant
 201	0	0	                	;	Nod
 202	0	0	                	;	Nod
 203	0	0.1280864	DP1             	;	CaminApometru
 204	0	0	                	;	Nod
 206	0	0.016358	DP1             	;	CaminApometru
 207	0	0	                	;	Nod
 208	0	0.00586424	DP1             	;	CaminApometru
 209	0	0.02561728	DP1             	;	CaminApometru
 210	0	0	                	;	Nod
 211	0	0	                	;	Nod
 214	0	0	                	;	Nod
 215	0	0	                	;	Nod
 216	0	0	                	;	Hidrant
 217	0	0	                	;	Vana
 218	0	0	                	;	Nod
 219	0	0	                	;	Nod
 220	0	0	                	;	Nod
 221	0	0	                	;	Hidrant
 222	0	0.1175928	DP1             	;	CaminApometru
 223	0	0	                	;	Nod
 224	0	0.01697528	DP1             	;	CaminApometru
 225	0	0	                	;	Hidrant
 226	0	0	                	;	Nod
 227	0	0	                	;	Nod
 228	0	0	                	;	Nod
 229	0	0.058642	DP1             	;	CaminApometru
 230	0	0.0219136	DP1             	;	CaminApometru
 231	0	0	                	;	Nod
 232	0	0	                	;	Nod
 233	0	0.04413584	DP1             	;	CaminApometru
 234	0	0	                	;	Hidrant
 235	0	0	                	;	Nod
 236	0	0.1052472	DP1             	;	CaminApometru
 238	0	0	                	;	Nod
 239	0	0	                	;	Nod
 241	0	0	                	;	Vana
 243	0	0	                	;	Nod
 244	0	0	                	;	Hidrant
 245	0	0.058642	DP1             	;	CaminApometru
 246	0	0	                	;	Nod
 247	0	0	                	;	Nod
 248	0	0	                	;	Vana
 249	0	0	                	;	Nod
 250	0	0	                	;	Vana
 251	0	0	                	;	Nod
 252	0	0.04475312	DP1             	;	CaminApometru
 253	0	0.07839504	DP1             	;	CaminApometru
 255	0	0	                	;	Nod
 256	0	0	                	;	Nod
 257	0	0.0382716	DP1             	;	CaminApometru
 259	0	0.1175928	DP1             	;	CaminApometru
 260	0	0	                	;	Nod
 263	0	0.0861112	DP1             	;	CaminApometru
 265	0	0	                	;	Nod
 266	0	0	                	;	Nod
 268	0	0.04012344	DP1             	;	CaminApometru
 269	0	0	                	;	Nod
 270	0	0	                	;	Nod
 271	0	0	                	;	Nod
 272	0	0.1074072	DP1             	;	CaminApometru
 274	0	0	                	;	Vana
 276	0	0	                	;	Nod
 277	0	0	                	;	Vana
 278	0	0	                	;	Nod
 279	0	0	                	;	Nod
 281	0	0	                	;	Nod
 282	0	0	                	;	Vana
 283	0	0.02777776	DP1             	;	CaminApometru
 284	0	0	                	;	Nod
 285	0	0	                	;	Nod
 286	0	0	                	;	Nod
 287	0	0.0484568	DP1             	;	CaminApometru
 288	0	0.02314816	DP1             	;	CaminApometru
 289	0	0	                	;	Nod
 290	0	0	                	;	Vana
 291	0	0.05277776	DP1             	;	CaminApometru
 292	0	0	                	;	Vana
 293	0	0	                	;	Nod
 294	0	0	                	;	Nod
 295	0	0	                	;	Nod
 296	0	0	                	;	Hidrant
 297	0	0	                	;	Nod
 298	0	0.0351852	DP1             	;	CaminApometru
 299	0	0	                	;	Nod
 300	0	0	                	;	Nod
 302	0	0	                	;	Nod
 303	0	0	                	;	Vana
 305	0	0.04629632	DP1             	;	CaminApometru
 306	0	0	                	;	Nod
 307	0	0	                	;	Nod
 308	0	0.0570988	DP1             	;	CaminApometru
 309	0	0.02685184	DP1             	;	CaminApometru
 310	0	0	                	;	Nod
 311	0	0	                	;	Hidrant
 312	0	0	                	;	Nod
 314	0	0.00617288	DP1             	;	CaminApometru
 315	0	0	                	;	Nod
 316	0	0	                	;	Nod
 317	0	0.1185184	DP1             	;	CaminApometru
 318	0	0	                	;	Nod
 319	0	0	                	;	Vana
 321	0	0	                	;	Nod
 322	0	0	                	;	Hidrant
 323	0	0	                	;	Nod
 324	0	0	                	;	Nod
 325	0	0	                	;	Nod
 327	0	0	                	;	Nod
 328	0	0.0046296	DP1             	;	CaminApometru
 329	0	0	                	;	Hidrant
 330	0	0	                	;	Nod
 333	0	0.04629632	DP1             	;	CaminApometru
 334	0	0	                	;	Nod
 336	0	0	                	;	Hidrant
 342	0	0	                	;	Nod
 346	0	0	                	;	Vana
 349	0	0	                	;	Nod
 353	0	0	                	;	Nod
 354	0	0	                	;	Nod
 355	0	0	                	;	Nod
 356	0	0	                	;	Nod
 361	0	0.00771608	DP1             	;	CaminApometru
 362	0	0	                	;	Nod
 363	0	0.0891976	DP1             	;	CaminApometru 
 364	0	0	                	;	Nod
 366	0	0	                	;	Nod
 369	0	0.00895064	DP1             	;	CaminApometru 
 370	0	0	                	;	Nod
 371	0	0	                	;	Nod
 372	0	0.01358024	DP1             	;	CaminApometru
 373	0	0	                	;	Nod
 374	0	0.02314816	DP1             	;	CaminApometru
 376	0	0	                	;	Nod
 377	0	0	                	;	Hidrant
 378	0	0	                	;	Nod
 379	0	0	                	;	Nod
 380	0	0.016358	DP1             	;	CaminApometru
 381	0	0	                	;	Vana
 382	0	0	                	;	Nod
 383	0	0	                	;	Nod
 384	0	0	                	;	Vana
 385	0	0	                	;	Nod
 386	0	0	                	;	Nod
 387	0	0	                	;	Nod
 388	0	0	                	;	Nod
 389	0	0	                	;	Nod
 390	0	0	                	;	Nod
 391	0	0	                	;	Nod
 394	0	0	                	;	Nod
 396	0	0	                	;	Nod
 397	0	0	                	;	Nod
 399	0	0	                	;	Nod
 NV242           	0	0	                	;	Vana
 NV243           	0	0	                	;	Vana
 NV246           	0	0	                	;	Vana
 NV247           	0	0	                	;	Vana
 NV249           	0	0	                	;	Nod
 NV529           	0	0	                	;	Vana


[RESERVOIRS]
;ID              	Head        	Pattern         
 1               	25          	                	;

[TANKS]
;ID              	Elevation   	InitLevel   	MinLevel    	MaxLevel    	Diameter    	MinVol      	VolCurve

[PIPES]
;ID              	Node1           	Node2           	Length      	Diameter    	Roughness   	MinorLoss   	Status
 1               	1               	349             	1           	500         	1           	0           	Open  	;	
 400             	202             	188             	30.225      	80          	100         	0           	Open  	;	F
 401             	386             	389             	0.204       	200         	148         	0           	Open  	;	PE-HD
 403             	64              	74              	4.941       	80          	100         	0           	Open  	;	F
 404             	80              	74              	11.605      	50          	110         	0           	Open  	;	OTEL
 405             	123             	126             	2.622       	50          	110         	0           	Open  	;	OTEL
 406             	100             	90              	13.594      	50          	110         	0           	Open  	;	OTEL
 407             	84              	83              	2.965       	80          	100         	0           	Open  	;	F
 408             	95              	84              	8.433       	80          	100         	0           	Open  	;	F
 412             	295             	286             	2.862       	80          	100         	0           	Open  	;	F
 413             	315             	295             	18.804      	80          	100         	0           	Open  	;	F
 414             	330             	315             	13.368      	80          	100         	0           	Open  	;	F
 415             	370             	330             	51.869      	80          	100         	0           	Open  	;	F
 416             	371             	370             	0.948       	80          	100         	0           	Open  	;	F
 417             	382             	371             	24.112      	80          	100         	0           	Open  	;	F
 418             	397             	382             	10.285      	80          	100         	0           	Open  	;	F
 419             	354             	355             	11.143      	100         	110         	0           	Open  	;	OTEL
 420             	353             	354             	9.834       	100         	110         	0           	Open  	;	OTEL
 421             	362             	334             	25.783      	80          	100         	0           	Open  	;	F
 423             	144             	151             	17.301      	80          	100         	0           	Open  	;	F
 424             	140             	144             	2.775       	80          	100         	0           	Open  	;	F
 425             	134             	140             	8.206       	80          	100         	0           	Open  	;	F
 426             	118             	134             	19.954      	80          	100         	0           	Open  	;	F
 427             	114             	118             	3.839       	80          	100         	0           	Open  	;	F
 428             	109             	114             	7.043       	80          	100         	0           	Open  	;	F
 429             	220             	219             	2.087       	80          	100         	0           	Open  	;	F
 430             	226             	220             	13.401      	80          	100         	0           	Open  	;	F
 431             	383             	387             	0.219       	200         	148         	0           	Open  	;	PE-HD
 432             	39              	45              	9.451       	80          	100         	0           	Open  	;	F
 433             	297             	285             	38.948      	175         	110         	0           	Open  	;	OTEL
 434             	146             	142             	9.915       	80          	100         	0           	Open  	;	F
 436             	162             	159             	8.031       	80          	100         	0           	Open  	;	F
 437             	170             	162             	19.031      	80          	100         	0           	Open  	;	F
 438             	12              	8               	33.161      	100         	110         	0           	Open  	;	OTEL
 439             	14              	12              	28.355      	100         	110         	0           	Open  	;	OTEL
 440             	17              	14              	23.114      	100         	110         	0           	Open  	;	OTEL
 441             	20              	17              	20.777      	100         	110         	0           	Open  	;	OTEL
 442             	21              	20              	9.962       	100         	110         	0           	Open  	;	OTEL
 443             	27              	21              	23.898      	100         	110         	0           	Open  	;	OTEL
 444             	37              	27              	24.748      	100         	110         	0           	Open  	;	OTEL
 445             	271             	255             	23.067      	80          	100         	0           	Open  	;	F
 446             	307             	271             	29.483      	80          	100         	0           	Open  	;	F
 447             	324             	307             	13.802      	80          	100         	0           	Open  	;	F
 448             	327             	324             	4.818       	80          	100         	0           	Open  	;	F
 449             	68              	75              	27.524      	80          	100         	0           	Open  	;	F
 450             	265             	256             	24.352      	315         	148         	0           	Open  	;	PE-HD
 451             	269             	265             	22.546      	315         	148         	0           	Open  	;	PE-HD
 452             	270             	269             	2.268       	315         	148         	0           	Open  	;	PE-HD
 453             	279             	270             	23.274      	315         	148         	0           	Open  	;	PE-HD
 454             	289             	279             	13.11       	315         	148         	0           	Open  	;	PE-HD
 455             	132             	152             	23.909      	80          	100         	0           	Open  	;	F
 456             	121             	132             	7.627       	80          	100         	0           	Open  	;	F
 457             	82              	121             	49.089      	80          	100         	0           	Open  	;	F
 458             	31              	62              	39.112      	100         	110         	0           	Open  	;	OTEL
 459             	28              	31              	2.813       	100         	110         	0           	Open  	;	OTEL
 460             	57              	48              	23.792      	100         	110         	0           	Open  	;	OTEL
 461             	66              	57              	14.022      	100         	110         	0           	Open  	;	OTEL
 462             	92              	66              	37.172      	100         	110         	0           	Open  	;	OTEL
 463             	139             	155             	26.422      	100         	110         	0           	Open  	;	OTEL
 464             	116             	139             	32.29       	100         	110         	0           	Open  	;	OTEL
 465             	92              	116             	45.228      	100         	110         	0           	Open  	;	OTEL
 466             	306             	300             	24.788      	200         	110         	0           	Open  	;	OTEL
 468             	95              	98              	3.14        	80          	100         	0           	Open  	;	F
 469             	70              	69              	3.095       	80          	100         	0           	Open  	;	F
 470             	90              	70              	29.544      	80          	100         	0           	Open  	;	F
 471             	93              	90              	4.416       	80          	100         	0           	Open  	;	F
 472             	101             	93              	19.223      	80          	100         	0           	Open  	;	F
 473             	105             	101             	11.368      	80          	100         	0           	Open  	;	F
 474             	108             	105             	5.267       	80          	100         	0           	Open  	;	F
 475             	115             	108             	12.927      	80          	100         	0           	Open  	;	F
 476             	124             	115             	19.636      	80          	100         	0           	Open  	;	F
 477             	126             	124             	1.322       	80          	100         	0           	Open  	;	F
 478             	128             	126             	2.603       	80          	100         	0           	Open  	;	F
 479             	171             	218             	22.061      	80          	100         	0           	Open  	;	F
 483             	364             	373             	23.479      	80          	100         	0           	Open  	;	F
 484             	356             	364             	6.268       	80          	100         	0           	Open  	;	F
 485             	318             	356             	40.657      	80          	100         	0           	Open  	;	F
 486             	312             	318             	3.448       	80          	100         	0           	Open  	;	F
 487             	59              	63              	6.778       	80          	100         	0           	Open  	;	F
 488             	50              	59              	22.287      	80          	100         	0           	Open  	;	F
 489             	47              	50              	4.531       	80          	100         	0           	Open  	;	F
 490             	44              	47              	8.489       	80          	100         	0           	Open  	;	F
 491             	40              	44              	8.413       	80          	100         	0           	Open  	;	F
 492             	35              	40              	10.99       	80          	100         	0           	Open  	;	F
 494             	67              	68              	9.509       	80          	100         	0           	Open  	;	F
 495             	207             	204             	10.332      	80          	100         	0           	Open  	;	F
 496             	211             	207             	13.19       	80          	100         	0           	Open  	;	F
 497             	215             	201             	18.254      	315         	148         	0           	Open  	;	PE-HD
 498             	223             	215             	9.49        	315         	148         	0           	Open  	;	PE-HD
 499             	231             	223             	12.026      	315         	148         	0           	Open  	;	PE-HD
 500             	232             	231             	5.058       	315         	148         	0           	Open  	;	PE-HD
 501             	239             	232             	7.079       	315         	148         	0           	Open  	;	PE-HD
 502             	227             	238             	38.596      	80          	100         	0           	Open  	;	F
 503             	226             	227             	0.168       	80          	100         	0           	Open  	;	F
 505             	391             	394             	38.593      	200         	110         	0           	Open  	;	OTEL
 506             	390             	391             	2.81        	200         	110         	0           	Open  	;	OTEL
 508             	178             	190             	31.873      	315         	148         	0           	Open  	;	PE-HD
 510             	7               	3               	76.159      	100         	110         	0           	Open  	;	OTEL
 511             	49              	58              	12.682      	80          	100         	0           	Open  	;	F
 512             	33              	49              	18.389      	80          	100         	0           	Open  	;	F
 513             	24              	33              	16.835      	80          	100         	0           	Open  	;	F
 514             	15              	24              	19.084      	80          	100         	0           	Open  	;	F
 515             	11              	15              	19.507      	80          	100         	0           	Open  	;	F
 516             	260             	228             	31.781      	100         	110         	0           	Open  	;	OTEL
 517             	299             	260             	41.72       	100         	110         	0           	Open  	;	OTEL
 518             	302             	299             	1.98        	100         	110         	0           	Open  	;	OTEL
 520             	342             	325             	83.808      	200         	110         	0           	Open  	;	OTEL
 521             	319             	266             	49.872      	100         	110         	0           	Open  	;	OTEL
 522             	266             	243             	20.573      	100         	110         	0           	Open  	;	OTEL
 523             	325             	323             	5.184       	200         	110         	0           	Open  	;	OTEL
 525             	346             	302             	46.314      	100         	110         	0           	Open  	;	OTEL
 527             	228             	214             	8.071       	100         	110         	0           	Open  	;	OTEL
 528             	217             	243             	25.621      	100         	110         	0           	Open  	;	OTEL
 529             	38              	NV243           	4.031       	100         	110         	0           	Open  	;	OTEL
 530             	58              	64              	6.6         	80          	100         	0           	Open  	;	F
 531             	3               	11              	15.913      	100         	110         	0           	Open  	;	OTEL
 536             	378             	376             	3.169       	80          	100         	0           	Open  	;	F
 537             	394             	396             	36.357      	200         	110         	0           	Open  	;	OTEL
 538             	366             	362             	9.068       	80          	100         	0           	Open  	;	F
 540             	238             	241             	13.908      	80          	100         	0           	Open  	;	F
 541             	201             	185             	29.548      	315         	148         	0           	Open  	;	PE-HD
 542             	204             	202             	6.037       	80          	100         	0           	Open  	;	F
 544             	135             	136             	1.799       	80          	100         	0           	Open  	;	F
 546             	63              	88              	33.117      	80          	100         	0           	Open  	;	F
 547             	38              	NV242           	0.488       	80          	100         	0           	Open  	;	F
 549             	373             	376             	13.575      	80          	100         	0           	Open  	;	F
 551             	157             	158             	1.582       	100         	110         	0           	Open  	;	OTEL
 552             	276             	281             	25.613      	175         	110         	0           	Open  	;	OTEL
 553             	218             	274             	56.091      	80          	100         	0           	Open  	;	F
 554             	69              	67              	8.881       	80          	100         	0           	Open  	;	F
 555             	98              	135             	52.907      	80          	100         	0           	Open  	;	F
 556             	246             	247             	0.169       	225         	148         	0           	Open  	;	PE-HD
 557             	300             	297             	19.497      	200         	110         	0           	Open  	;	OTEL
 560             	48              	38              	22.415      	100         	110         	0           	Open  	;	OTEL
 563             	62              	68              	5.237       	100         	110         	0           	Open  	;	OTEL
 564             	152             	157             	2.901       	80          	100         	0           	Open  	;	F
 565             	131             	128             	4.222       	80          	100         	0           	Open  	;	F
 566             	256             	248             	6.031       	315         	148         	0           	Open  	;	PE-HD
 568             	239             	246             	14.572      	315         	148         	0           	Open  	;	PE-HD
 569             	175             	176             	0.24        	315         	150         	0           	Open  	;	PVC
 571             	282             	284             	1.294       	250         	148         	0           	Open  	;	PE-HD
 572             	239             	244             	1.379       	110         	148         	0           	Open  	;	PE-HD
 575             	396             	397             	1.931       	80          	100         	0           	Open  	;	F
 576             	397             	399             	76.51       	80          	100         	0           	Open  	;	F
 577             	75              	81              	27.585      	80          	100         	0           	Open  	;	F
 578             	323             	322             	0.882       	100         	110         	0           	Open  	;	OTEL